
**** 11/02/20 14:55:38 ********* PSpice 9.2 (Mar 2000) ******** ID# 1 ********

 ** Profile: "SCHEMATIC1-test1"  [ C:\Users\M R\Desktop\az madar elec\s03\pish gozaresh 2\soal4\part1\level2\q2-2-SCHEMATIC1-test1.si


 ****     CIRCUIT DESCRIPTION


******************************************************************************




** Creating circuit file "q2-2-SCHEMATIC1-test1.sim.cir" 
** WARNING: THIS AUTOMATICALLY GENERATED FILE MAY BE OVERWRITTEN BY SUBSEQUENT SIMULATIONS

*Libraries: 
* Local Libraries :
* From [PSPICE NETLIST] section of C:\Program Files\Orcad\PSpice\PSpice.ini file:
.lib "nom.lib" 

*Analysis directives: 
.TRAN  0 10ms 0 
.PROBE V(*) I(*) W(*) D(*) NOISE(*) 
.INC ".\q2-2-SCHEMATIC1.net" 



**** INCLUDING q2-2-SCHEMATIC1.net ****
* source Q2-2
V_V1         N00447 0  
+SIN 0 5 150 0 0 0
R_R1         N00127 N00165  0.18k  
R_R3         0 N00165  5.6k  
R_R4         N00447 N00127  0.06k  

**** RESUMING q2-2-SCHEMATIC1-test1.sim.cir ****
.END

**** 11/02/20 14:55:38 ********* PSpice 9.2 (Mar 2000) ******** ID# 1 ********

 ** Profile: "SCHEMATIC1-test1"  [ C:\Users\M R\Desktop\az madar elec\s03\pish gozaresh 2\soal4\part1\level2\q2-2-SCHEMATIC1-test1.si


 ****     INITIAL TRANSIENT SOLUTION       TEMPERATURE =   27.000 DEG C


******************************************************************************



 NODE   VOLTAGE     NODE   VOLTAGE     NODE   VOLTAGE     NODE   VOLTAGE


(N00127)    0.0000 (N00165)    0.0000 (N00447)    0.0000 




    VOLTAGE SOURCE CURRENTS
    NAME         CURRENT

    V_V1         0.000E+00

    TOTAL POWER DISSIPATION   0.00E+00  WATTS



          JOB CONCLUDED

          TOTAL JOB TIME             .02
