
**** 12/21/20 11:19:04 ********* PSpice 9.2 (Mar 2000) ******** ID# 1 ********

 ** Profile: "SCHEMATIC1-pish1Sim"  [ C:\USERS\M R\DESKTOP\az madar elec\s07\pishGozaresh1\pish1-SCHEMATIC1-pish1Sim.sim ] 


 ****     CIRCUIT DESCRIPTION


******************************************************************************




** Creating circuit file "pish1-SCHEMATIC1-pish1Sim.sim.cir" 
** WARNING: THIS AUTOMATICALLY GENERATED FILE MAY BE OVERWRITTEN BY SUBSEQUENT SIMULATIONS

*Libraries: 
* Local Libraries :
* From [PSPICE NETLIST] section of C:\Program Files\Orcad\PSpice\PSpice.ini file:
.lib "nom.lib" 

*Analysis directives: 
.AC DEC 1000 0.1 200k
.PROBE V(*) I(*) W(*) D(*) NOISE(*) 
.INC ".\pish1-SCHEMATIC1.net" 



**** INCLUDING pish1-SCHEMATIC1.net ****
* source PISH1
R_R1         N00075 N00109  10k  
C_C1         0 N00109  100n  
R_R2         0 N00109  5.6k  
V_V1         N00075 0 DC 0Vdc AC 1Vac 

**** RESUMING pish1-SCHEMATIC1-pish1Sim.sim.cir ****
.END

**** 12/21/20 11:19:04 ********* PSpice 9.2 (Mar 2000) ******** ID# 1 ********

 ** Profile: "SCHEMATIC1-pish1Sim"  [ C:\USERS\M R\DESKTOP\az madar elec\s07\pishGozaresh1\pish1-SCHEMATIC1-pish1Sim.sim ] 


 ****     SMALL SIGNAL BIAS SOLUTION       TEMPERATURE =   27.000 DEG C


******************************************************************************



 NODE   VOLTAGE     NODE   VOLTAGE     NODE   VOLTAGE     NODE   VOLTAGE


(N00075)    0.0000 (N00109)    0.0000 




    VOLTAGE SOURCE CURRENTS
    NAME         CURRENT

    V_V1         0.000E+00

    TOTAL POWER DISSIPATION   0.00E+00  WATTS



          JOB CONCLUDED

          TOTAL JOB TIME             .34
