
**** 12/23/20 12:00:59 ********* PSpice 9.2 (Mar 2000) ******** ID# 1 ********

 ** Profile: "SCHEMATIC1-te1"  [ C:\USERS\M R\DESKTOP\az madar elec\s07\azmayesh4\az4-SCHEMATIC1-te1.sim ] 


 ****     CIRCUIT DESCRIPTION


******************************************************************************




** Creating circuit file "az4-SCHEMATIC1-te1.sim.cir" 
** WARNING: THIS AUTOMATICALLY GENERATED FILE MAY BE OVERWRITTEN BY SUBSEQUENT SIMULATIONS

*Libraries: 
* Local Libraries :
* From [PSPICE NETLIST] section of C:\Program Files\Orcad\PSpice\PSpice.ini file:
.lib "nom.lib" 

*Analysis directives: 
.AC DEC 1000 0.1 200k
.PROBE V(*) I(*) W(*) D(*) NOISE(*) 
.INC ".\az4-SCHEMATIC1.net" 



**** INCLUDING az4-SCHEMATIC1.net ****
* source AZ4
R_R3         0 N00152  56k  
R_R2         N00125 N00224  10k  
C_C2         N00152 N00125  100n  
V_V2         N00224 0 DC 0Vdc AC 2Vac 
C_C1         0 N00125  100n  
R_R1         0 N00152  10k  

**** RESUMING az4-SCHEMATIC1-te1.sim.cir ****
.END

**** 12/23/20 12:00:59 ********* PSpice 9.2 (Mar 2000) ******** ID# 1 ********

 ** Profile: "SCHEMATIC1-te1"  [ C:\USERS\M R\DESKTOP\az madar elec\s07\azmayesh4\az4-SCHEMATIC1-te1.sim ] 


 ****     SMALL SIGNAL BIAS SOLUTION       TEMPERATURE =   27.000 DEG C


******************************************************************************



 NODE   VOLTAGE     NODE   VOLTAGE     NODE   VOLTAGE     NODE   VOLTAGE


(N00125)    0.0000 (N00152)    0.0000 (N00224)    0.0000 




    VOLTAGE SOURCE CURRENTS
    NAME         CURRENT

    V_V2         0.000E+00

    TOTAL POWER DISSIPATION   0.00E+00  WATTS



          JOB CONCLUDED

          TOTAL JOB TIME             .31
