
**** 11/09/20 03:57:22 ********* PSpice 9.2 (Mar 2000) ******** ID# 1 ********

 ** Profile: "SCHEMATIC1-test1"  [ C:\Users\M R\Desktop\az madar elec\s05\part2\pishgozaresh4\q4-SCHEMATIC1-test1.sim ] 


 ****     CIRCUIT DESCRIPTION


******************************************************************************




** Creating circuit file "q4-SCHEMATIC1-test1.sim.cir" 
** WARNING: THIS AUTOMATICALLY GENERATED FILE MAY BE OVERWRITTEN BY SUBSEQUENT SIMULATIONS

*Libraries: 
* Local Libraries :
* From [PSPICE NETLIST] section of C:\Program Files\Orcad\PSpice\PSpice.ini file:
.lib "nom.lib" 

*Analysis directives: 
.TRAN  0 40ms 0 
.PROBE V(*) I(*) W(*) D(*) NOISE(*) 
.INC ".\q4-SCHEMATIC1.net" 



**** INCLUDING q4-SCHEMATIC1.net ****
* source Q4
V_V1         N00197 N00308  
+PULSE -2 2 0 1n 1n 10 20
C_C1         N00308 N00278  100n  
C_C2         N00197 N00251  100n  
R_R1         N00251 N00278  10k  
R_R2         N00308 N00251  10k  

**** RESUMING q4-SCHEMATIC1-test1.sim.cir ****
.END

ERROR -- Node N00197 is floating
ERROR -- Node N00308 is floating
ERROR -- Node N00278 is floating
ERROR -- Node N00251 is floating