
**** 11/02/20 15:22:51 ********* PSpice 9.2 (Mar 2000) ******** ID# 1 ********

 ** Profile: "SCHEMATIC1-test"  [ C:\USERS\M R\DESKTOP\AZ MADAR ELEC\S03\PISH GOZARESH 2\SOAL4\part2\q2-3-SCHEMATIC1-test.sim ] 


 ****     CIRCUIT DESCRIPTION


******************************************************************************




** Creating circuit file "q2-3-SCHEMATIC1-test.sim.cir" 
** WARNING: THIS AUTOMATICALLY GENERATED FILE MAY BE OVERWRITTEN BY SUBSEQUENT SIMULATIONS

*Libraries: 
* Local Libraries :
* From [PSPICE NETLIST] section of C:\Program Files\Orcad\PSpice\PSpice.ini file:
.lib "nom.lib" 

*Analysis directives: 
.TRAN  0 10ms 0 
.PROBE V(*) I(*) W(*) D(*) NOISE(*) 
.INC ".\q2-3-SCHEMATIC1.net" 



**** INCLUDING q2-3-SCHEMATIC1.net ****
* source Q2-3
V_V1         N00205 0  
+SIN 0 4.8 150 0 0 0
R_Rth         N00205 0  0.428k  

**** RESUMING q2-3-SCHEMATIC1-test.sim.cir ****
.END

**** 11/02/20 15:22:51 ********* PSpice 9.2 (Mar 2000) ******** ID# 1 ********

 ** Profile: "SCHEMATIC1-test"  [ C:\USERS\M R\DESKTOP\AZ MADAR ELEC\S03\PISH GOZARESH 2\SOAL4\part2\q2-3-SCHEMATIC1-test.sim ] 


 ****     INITIAL TRANSIENT SOLUTION       TEMPERATURE =   27.000 DEG C


******************************************************************************



 NODE   VOLTAGE     NODE   VOLTAGE     NODE   VOLTAGE     NODE   VOLTAGE


(N00205)    0.0000 




    VOLTAGE SOURCE CURRENTS
    NAME         CURRENT

    V_V1         0.000E+00

    TOTAL POWER DISSIPATION   0.00E+00  WATTS



          JOB CONCLUDED

          TOTAL JOB TIME             .03
