
**** 10/12/20 11:53:06 ********* PSpice 9.2 (Mar 2000) ******** ID# 1 ********

 ** Profile: "SCHEMATIC1-q2-1"  [ C:\Users\M R\Desktop\az madar elec\pishgozaresh\q2_2\q2_pishgozaresh-SCHEMATIC1-q2-1.sim ] 


 ****     CIRCUIT DESCRIPTION


******************************************************************************




** Creating circuit file "q2_pishgozaresh-SCHEMATIC1-q2-1.sim.cir" 
** WARNING: THIS AUTOMATICALLY GENERATED FILE MAY BE OVERWRITTEN BY SUBSEQUENT SIMULATIONS

*Libraries: 
* Local Libraries :
* From [PSPICE NETLIST] section of C:\Program Files\Orcad\PSpice\PSpice.ini file:
.lib "nom.lib" 

*Analysis directives: 
.PROBE V(*) I(*) W(*) D(*) NOISE(*) 
.INC ".\q2_pishgozaresh-SCHEMATIC1.net" 



**** INCLUDING q2_pishgozaresh-SCHEMATIC1.net ****
* source Q2_PISHGOZARESH
R_R1         0 N00091  680  
R_R2         0 N00091  1k  
R_R3         N00091 0  5.6k  
V_V1         N00091 0 3

**** RESUMING q2_pishgozaresh-SCHEMATIC1-q2-1.sim.cir ****
.END

**** 10/12/20 11:53:06 ********* PSpice 9.2 (Mar 2000) ******** ID# 1 ********

 ** Profile: "SCHEMATIC1-q2-1"  [ C:\Users\M R\Desktop\az madar elec\pishgozaresh\q2_2\q2_pishgozaresh-SCHEMATIC1-q2-1.sim ] 


 ****     SMALL SIGNAL BIAS SOLUTION       TEMPERATURE =   27.000 DEG C


******************************************************************************



 NODE   VOLTAGE     NODE   VOLTAGE     NODE   VOLTAGE     NODE   VOLTAGE


(N00091)    3.0000 




    VOLTAGE SOURCE CURRENTS
    NAME         CURRENT

    V_V1        -7.947E-03

    TOTAL POWER DISSIPATION   2.38E-02  WATTS



          JOB CONCLUDED

          TOTAL JOB TIME             .03
