
**** 11/02/20 14:28:27 ********* PSpice 9.2 (Mar 2000) ******** ID# 1 ********

 ** Profile: "SCHEMATIC1-test3"  [ C:\Users\M R\Desktop\az madar elec\s03\pish gozaresh 2\soal4\part1\level1\q4-1-SCHEMATIC1-test3.si


 ****     CIRCUIT DESCRIPTION


******************************************************************************




** Creating circuit file "q4-1-SCHEMATIC1-test3.sim.cir" 
** WARNING: THIS AUTOMATICALLY GENERATED FILE MAY BE OVERWRITTEN BY SUBSEQUENT SIMULATIONS

*Libraries: 
* Local Libraries :
* From [PSPICE NETLIST] section of C:\Program Files\Orcad\PSpice\PSpice.ini file:
.lib "nom.lib" 

*Analysis directives: 
.TRAN  0 10ms 0 
.PROBE V(*) I(*) W(*) D(*) NOISE(*) 
.INC ".\q4-1-SCHEMATIC1.net" 



**** INCLUDING q4-1-SCHEMATIC1.net ****
* source Q4-1
V_V2         N00802 0  
+SIN 0 5 150 0 0 0
R_R1         N00183 N00222  0.18k  
R_R2         N00222 0  0.18k  
R_R3         0 N00222  5.6k  
R_R4         N00802 N00183  0.06k  

**** RESUMING q4-1-SCHEMATIC1-test3.sim.cir ****
.END

**** 11/02/20 14:28:27 ********* PSpice 9.2 (Mar 2000) ******** ID# 1 ********

 ** Profile: "SCHEMATIC1-test3"  [ C:\Users\M R\Desktop\az madar elec\s03\pish gozaresh 2\soal4\part1\level1\q4-1-SCHEMATIC1-test3.si


 ****     INITIAL TRANSIENT SOLUTION       TEMPERATURE =   27.000 DEG C


******************************************************************************



 NODE   VOLTAGE     NODE   VOLTAGE     NODE   VOLTAGE     NODE   VOLTAGE


(N00183)    0.0000 (N00222)    0.0000 (N00802)    0.0000 




    VOLTAGE SOURCE CURRENTS
    NAME         CURRENT

    V_V2         0.000E+00

    TOTAL POWER DISSIPATION   0.00E+00  WATTS



          JOB CONCLUDED

          TOTAL JOB TIME             .08
