
**** 11/02/20 12:31:14 ********* PSpice 9.2 (Mar 2000) ******** ID# 1 ********

 ** Profile: "SCHEMATIC1-test"  [ C:\Users\M R\Desktop\az madar elec\s03\pish gozaresh 1\soal 2\q2-SCHEMATIC1-test.sim ] 


 ****     CIRCUIT DESCRIPTION


******************************************************************************




** Creating circuit file "q2-SCHEMATIC1-test.sim.cir" 
** WARNING: THIS AUTOMATICALLY GENERATED FILE MAY BE OVERWRITTEN BY SUBSEQUENT SIMULATIONS

*Libraries: 
* Local Libraries :
* From [PSPICE NETLIST] section of C:\Program Files\Orcad\PSpice\PSpice.ini file:
.lib "nom.lib" 

*Analysis directives: 
.PROBE V(*) I(*) W(*) D(*) NOISE(*) 
.INC ".\q2-SCHEMATIC1.net" 



**** INCLUDING q2-SCHEMATIC1.net ****
* source Q2
R_Rth         N00047 0  0.5781k  
V_V1         N00047 0 11.28Vdc

**** RESUMING q2-SCHEMATIC1-test.sim.cir ****
.END

**** 11/02/20 12:31:14 ********* PSpice 9.2 (Mar 2000) ******** ID# 1 ********

 ** Profile: "SCHEMATIC1-test"  [ C:\Users\M R\Desktop\az madar elec\s03\pish gozaresh 1\soal 2\q2-SCHEMATIC1-test.sim ] 


 ****     SMALL SIGNAL BIAS SOLUTION       TEMPERATURE =   27.000 DEG C


******************************************************************************



 NODE   VOLTAGE     NODE   VOLTAGE     NODE   VOLTAGE     NODE   VOLTAGE


(N00047)   11.2800 




    VOLTAGE SOURCE CURRENTS
    NAME         CURRENT

    V_V1        -1.951E-02

    TOTAL POWER DISSIPATION   2.20E-01  WATTS



          JOB CONCLUDED

          TOTAL JOB TIME             .02
