
**** 12/22/20 20:44:14 ********* PSpice 9.2 (Mar 2000) ******** ID# 1 ********

 ** Profile: "SCHEMATIC1-tes"  [ C:\USERS\M R\DESKTOP\az madar elec\s07\azmayesh3\az3-SCHEMATIC1-tes.sim ] 


 ****     CIRCUIT DESCRIPTION


******************************************************************************




** Creating circuit file "az3-SCHEMATIC1-tes.sim.cir" 
** WARNING: THIS AUTOMATICALLY GENERATED FILE MAY BE OVERWRITTEN BY SUBSEQUENT SIMULATIONS

*Libraries: 
* Local Libraries :
* From [PSPICE NETLIST] section of C:\Program Files\Orcad\PSpice\PSpice.ini file:
.lib "nom.lib" 

*Analysis directives: 
.TRAN  0 50ms 0 
.PROBE V(*) I(*) W(*) D(*) NOISE(*) 
.INC ".\az3-SCHEMATIC1.net" 



**** INCLUDING az3-SCHEMATIC1.net ****
* source AZ3
V_V6         N00093 0  
+SIN 0 2 100 0 0 0
R_R1         N00093 N00109  150k  
C_C2         0 N00109  100n   

**** RESUMING az3-SCHEMATIC1-tes.sim.cir ****
.END

**** 12/22/20 20:44:14 ********* PSpice 9.2 (Mar 2000) ******** ID# 1 ********

 ** Profile: "SCHEMATIC1-tes"  [ C:\USERS\M R\DESKTOP\az madar elec\s07\azmayesh3\az3-SCHEMATIC1-tes.sim ] 


 ****     INITIAL TRANSIENT SOLUTION       TEMPERATURE =   27.000 DEG C


******************************************************************************



 NODE   VOLTAGE     NODE   VOLTAGE     NODE   VOLTAGE     NODE   VOLTAGE


(N00093)    0.0000 (N00109)    0.0000 




    VOLTAGE SOURCE CURRENTS
    NAME         CURRENT

    V_V6         0.000E+00

    TOTAL POWER DISSIPATION   0.00E+00  WATTS



          JOB CONCLUDED

          TOTAL JOB TIME             .02
